* LTspice Encrypted File
* 
* This encrypted file has been supplied by a 3rd
* party vendor that does not wish to publicize
* the technology used to implement this library.
* 
* Permission is granted to use this file for
* simulations but not to reverse engineer its
* contents.
* 
* Begin:
 A8 DC 2C 58 1E 90 75 C9 63 8A D1 A9 28 AE A6 57
 C4 7C 95 57 CD 79 23 49 92 F4 39 39 45 A0 66 90
 FD 40 ED CA C4 C0 52 A2 93 74 1C 3C 2D 62 AF 3C
 82 20 FC C6 02 F3 8D E8 DA 07 6F D2 11 3D 5C 0B
 67 66 41 02 D7 AB 27 4F D6 E6 E8 80 80 7C 54 6A
 3B 11 27 5F 1D 38 A4 18 90 A5 0A 79 51 CD 25 8B
 F0 FE 52 26 F5 CF 5B 61 23 ED 30 F8 42 CF EB C8
 EA CA 9B 8B 02 C9 E6 1A 27 CF 43 1D E4 C8 28 E5
 4B AB 1A 63 81 49 D8 21 1D AA D0 30 FA B4 BB 76
 FA 66 A9 B5 68 F7 0F 3D 0A A0 DF 9A 69 D7 79 6B
 7C C9 1F AD AF 8E 1A 93 C2 1A ED 99 34 58 26 A3
 D6 0C 16 F6 49 1D 27 DB 03 32 35 44 D8 EA A0 4A
 38 B3 AA C9 A5 C1 EC 9E 2C C5 DA A7 F6 BB F6 36
 2F FF 89 BD 76 40 4A 1E 69 A1 BA 72 A9 ED 70 2B
 6C 21 5B EA FE C3 74 02 9A A9 77 69 16 DC AF 2D
 19 8D 48 19 EE 6A 01 FB 5E 62 0C 5D 77 F6 39 C9
 CC 98 7B 54 88 CB E8 3F 00 7D 41 37 76 46 47 07
 69 67 02 E8 FC C4 28 6D 77 CB 79 10 76 42 EC 33
 8D 46 72 E2 AD 1C 29 3F EC B5 86 ED F4 67 0A 04
 79 3E 10 C5 89 95 22 B0 23 9A E3 E3 D9 E7 BD 3F
 BF A9 EE C5 4F B9 11 C6 E4 2B F4 7E 1F A3 39 FF
 0E 45 9F F0 BE 3D 4D 4F 1C 03 3D DE 0B F0 72 62
 68 A7 76 08 E2 51 16 D9 45 4F BA 25 61 4B 4A 0C
 FA 5E BA 7C E8 ED 84 21 9A E2 FE DD F0 33 15 F9
 BD 12 42 D8 8A 7A FF 3C FA 65 8F 9A E4 68 DB 17
 7F 34 0B 61 E8 8F 00 8D 5C 72 81 67 66 87 0B 43
 ED A4 81 8D 61 69 D6 81 FD 59 94 CD E0 08 8A 7B
 69 79 5C 10 13 4D 3E 75 6A 88 7B FB 2D BC 63 71
 9E BE D1 9F D2 37 79 4E 63 09 7A 53 F7 D4 71 63
 B6 F9 FC 0B 75 62 3A 5F 4E F4 6B 6E 02 AD C9 C1
 9B 8A 7C A2 B4 B2 52 FF C9 55 33 E4 0F EA E7 2C
 40 10 C1 3B A0 C2 EA 1C C4 80 90 CA AD 09 C0 42
 76 40 B3 3A D7 9E B5 5D 17 44 24 04 63 06 DC F2
 0B 60 E2 07 8D 73 66 A4 E4 A8 FA B8 F7 19 EC 6B
 90 F5 80 6D C1 35 DA EC 87 CF 81 AA 26 06 F0 3A
 1D 01 99 B3 25 0B A2 39 10 25 C8 C1 FF D8 63 19
 DE 0F 36 F5 56 53 20 51 E6 00 F6 29 EC 4B 01 A1
 07 87 53 4F E3 D1 85 E2 02 67 17 17 1F 77 FD 50
 DB BB C1 BE 25 31 6E D2 B0 ED 05 87 4C 9A 55 B6
 3F CF 30 A3 F8 32 82 6E 46 E4 D3 5E 11 B4 C2 E0
 A8 DB C1 21 D0 89 B2 AE DD 58 25 4B F8 44 A8 7D
 55 92 2A 72 73 54 96 6D DF 47 99 4C 48 9E CE CC
 97 90 CB 0C 14 AB 6F 16 D2 8E 7A AF 08 FD 11 11
 8E 32 1C CE 30 F1 FD 79 28 6D C5 3E 76 DA E5 F6
 1C 75 BE 10 CC 16 F9 E9 78 2E 58 B5 AD F7 06 C9
 9F A8 46 E7 48 C1 DA 39 E1 9D B9 45 01 B6 C7 AE
 9C D5 11 7A 08 15 A2 0C FA 09 E9 C4 A3 69 3D DD
 9B B9 85 ED CA 7A D9 33 1A B5 36 2E F0 21 9A AF
 74 F7 2C F2 E2 AD 19 45 E7 86 E3 BE 4A 7A 9D C3
 97 84 35 BE 91 04 39 88 E8 66 66 34 78 00 56 8E
 23 AC 13 99 06 70 B8 84 D2 27 66 2A 2E B5 E7 67
 49 B2 ED 81 B3 B5 08 A0 AF 4A 89 63 46 EA 12 6F
 A6 79 83 99 3D 8D 0A 0A DC 95 F3 7E 35 83 F2 1D
 99 79 08 7B 0D 44 D8 43 63 F7 78 BE 0F 01 5B E2
 01 A5 C5 63 36 86 B7 BC 15 FD 84 51 C4 D9 CE F4
 79 DA DF 03 73 D6 49 52 27 41 1A 3E 5E 25 3E F5
 5E CA 18 1E 45 51 C4 48 43 D3 0C CC 93 6D DB 29
 2F 77 4A CB E6 24 0F 93 DF B1 2E 56 77 5F A5 94
 93 A6 46 4B 9A 71 FE FE 9D C4 F6 01 06 BB 98 7F
 C1 8A 2C 31 69 05 96 E2 97 6D 96 EA A1 E2 DD 71
 CC 1E 57 AD 71 FA 97 E7 79 48 70 30 39 CD E6 39
 E2 5F 90 3D 23 8F 53 2E B6 B4 FD B8 5F 14 EE B2
 13 3A 85 E9 CC 4C 5A 8B 65 99 9F F3 06 F1 9B 82
 3D 1C 94 EE 2C 21 9D B6 67 A2 07 E7 D8 32 5D 5F
 6E 1E 1F 00 C8 FC AE 5C 76 49 86 68 98 99 50 8E
 8D A9 B1 13 1A 7C 64 71 3E A2 AB BD 2A 66 28 C1
 F8 1C 1D F2 FC 03 9D BB EB 19 96 A3 D5 9B 2B 3D
 68 F9 22 1E 52 8F 98 45 AA 69 A1 62 74 A4 13 40
 55 A4 85 D3 4E 8F AB 35 0F 64 34 03 0F AD 58 9E
 7F CA E0 3C AC 4A 73 14 56 C8 37 FC DA 47 E1 AE
 7A 54 BB 86 3A 9B 25 DD F7 6F E0 A2 58 64 29 76
 F0 5A 83 05 99 5D 2C F2 94 CE A0 BB AA 48 D4 27
 E1 F0 8A A7 F5 ED 93 AF ED 28 4E 20 47 4D 31 4D
 FB 53 B4 11 47 B0 92 08 45 0D A9 91 FB CC 1C F7
 3B DB 4D 90 BF 63 9C 5D A4 D9 CB F4 C3 96 ED 9B
 28 23 1D A3 E9 78 68 7F C8 07 E2 18 1E 05 5C C8
 C9 45 57 BC 5F 8D 3B 88 CE CD E2 DD BA FA 1E 90
 EF 7A 07 1F 57 F0 D2 26 1C D1 45 EC E0 3C EF 0E
 53 DE 8C 57 5A C8 F7 F5 1F 03 D7 67 D2 18 15 9B
 76 01 AA 29 83 DA 9A F8 DD 78 D5 87 FF 7F 31 9A
 2D F9 63 B8 DD 41 3E A5 9A 1E DE F0 A8 8A 96 0C
 60 E3 B0 76 42 8D AB B7 B8 B1 68 EE 72 D6 BD 01
 C0 BA C3 2C 67 0F 56 BC 2B CB 0C DA 63 F3 80 0E
 CA C3 6D 49 01 F8 76 91 15 69 08 F5 21 9D 48 26
 5C 6B CC D1 1F 93 C1 D8 22 DE A7 3B 99 F7 3F 43
 65 56 67 A7 03 25 CA 23 81 34 BB DD 15 BB 94 8D
 C3 B3 12 49 07 B1 32 08 03 6A 8C 7C 31 C0 20 E5
 D6 FC AE FE C7 81 F3 44 6C D2 33 7E 95 19 14 3B
 0D C1 02 35 20 C0 79 85 EF 33 BA FC 1F 4B 11 0D
 BB 25 E8 4C 0B 8B 18 9E 46 9D A7 B2 BA BF 58 7B
 3F 07 CA 40 7E F2 E3 7D 2D 92 3C F0 65 96 25 A9
 4C 12 2B 50 EE A6 C0 B2 3E DE CB C9 57 54 FE 06
 55 EE 1F 5C 40 88 BC 17 2A D3 EF 95 DA 98 81 C6
 07 94 0B 13 B8 49 EF FA CF 5E 42 1F 6C F3 C2 D8
 66 2B A9 CA A2 6F B9 FA 49 32 78 41 A6 F4 4C 18
 7B 95 1B 5F AA 65 D8 54 BE C8 07 78 98 70 8B 68
 98 BB 7C 95 4D 71 82 90 72 18 AB 15 2C 0B 17 F9
 7E 30 8C 11 44 A4 1F 7D 18 D3 91 90 F4 19 67 43
 1D F7 DB 0A 8F 6F 24 79 CE 06 63 21 26 E4 C0 3B
 BA 3D 18 6B 5B C6 20 86 EF 68 DD 68 FB CA 88 0C
 76 D5 A5 E2 B5 F7 0E 8D E7 A0 F7 E4 CE BD 4C C0
 1A 2E DF 91 C8 AE AB B1 8C 01 94 7F 84 EA 3D FD
 E9 16 F0 16 87 18 A6 B6 C7 7F DA F4 19 A4 3F DE
 C0 A4 57 3C 59 2C 05 A4 4E 62 67 74 B4 1A FA 80
 A6 2D 44 EA C5 99 DB 10 A5 B1 4A E2 8B B9 DF F4
 A2 A6 72 ED 74 BF 45 53 D3 5F 41 72 4C 24 BB 3B
 67 DA 95 05 30 2C AB 92 48 41 42 5B 2C 00 ED 6D
 51 38 D9 17 B0 47 5B EF 02 64 75 67 F7 FA 53 C8
 9E BD 21 C3 97 5A 7E CD C2 02 48 5F 8F E7 34 62
 31 20 E1 4C 63 E9 09 4A A5 04 F7 AC 6D 7E 2B D2
 08 BD EE 73 E6 D3 B7 4D B1 F6 7C 5F C8 5D C1 15
 EA 69 0F 3E 27 D3 76 1D CB 73 41 9D 8C 0A 7A 83
 92 75 37 5E 84 B9 B1 04 62 95 BB B1 DD F5 5D F8
 03 DB 32 29 89 93 6B F4 AD A6 2F B7 D3 C4 B2 4E
 56 90 2B 75 A6 3F 9B E5 61 56 F4 9F 54 A7 2E 07
 C4 3C 55 B4 51 33 60 A8 E6 8A 78 2B E6 9A C4 44
 CF 52 17 8D 7C 6F C7 1E F8 FF AA 97 99 1D 45 F0
 AF D5 6C 59 6A 49 3D E8 7A 86 7D 8D 68 90 45 FC
 27 45 91 A0 E2 BA E4 90 3D 9C 1E DF 3E 7C E7 A7
 92 8A 32 38 39 A9 79 64 89 0E EE 23 82 D8 92 5B
 CB 9C AF BA EA 56 F8 1B F1 4F 6C F2 5D B5 02 81
 41 E4 E4 6B 43 DB 02 16 14 25 0E 7C 09 D1 DB 6C
 FB E6 0A BB 96 62 3F A0 31 C0 95 53 A8 EB 89 B1
 76 57 61 D7 85 DF 0D 8C BC EB A4 55 30 E0 A8 7F
 55 4C E5 88 6B 22 33 05 30 26 83 B7 00 6D 3F BE
 02 0C 83 89 1F 33 CD 4F 4C A7 1A 06 C4 BF 8C 70
 A2 91 F7 19 35 73 EE 07 7F 1A F9 09 9D 99 D0 93
 9B 28 4E F2 87 6C 69 60 21 16 B7 B5 70 D5 B8 49
 56 E0 8C EF DF 9D EA 77 6B 08 77 47 82 4D 7F 75
 60 AF 53 A2 28 90 BF 30 E2 E3 2B 8E 05 17 FD 59
 9D 0C 2F 76 A3 E5 B3 53 AE 7B 43 62 9A F2 6A 96
 95 1A 9A 68 5C 1B F0 AF 83 D4 5C 4B D9 74 3D 91
 67 24 7A 04 EB 25 92 86 1B 28 C3 61 7C 6F 38 40
 7A F6 49 23 19 BD 62 0E C5 E4 EF 5E A0 00 0D 50
 5C 3B FB 6F A3 E2 47 E3 CA 8D 5A C2 76 A7 5C 14
 98 7E 65 D5 A1 33 28 D3 DB 7C F8 E1 2E CB E9 77
 BB AB F0 5B 42 B7 66 89 38 3E 44 E1 20 95 23 61
 64 CD C7 B1 11 00 3D AB A3 2B 22 55 93 7A CD DF
 06 2F A7 B8 87 D1 50 93 BC 04 75 AA D7 91 26 E7
 A0 A9 05 8C A0 D3 80 A6 33 D6 58 60 E8 65 93 47
 0B EE 74 97 4B 4C 8C 8D D8 A1 10 B5 12 3D 11 D9
 AE 10 E4 CD D8 98 95 58 78 BF 18 9D F2 3C 0E B5
 86 16 68 7A 6E E2 5B D7 1E 5F E6 9A FE 9A 97 BE
 07 24 8F 7A 14 FE 97 0D 2B AC F8 FF B5 D9 61 1C
 31 85 2C 46 87 C7 30 B6 28 33 28 79 7D 94 54 53
 36 0D 5E 52 9F 5D BD EA C0 91 39 62 68 FC 83 42
 42 5B 8D 61 D3 54 B3 81 EF DD EF 98 6B 4D 61 2E
 5F 18 51 8C 92 0C CE 5E 3F 45 5E EF EB 10 33 3A
 30 77 85 12 3B 48 63 E9 33 14 EF F0 02 8C F1 84
 12 78 4D F4 3B 87 7B FB 8A B3 F9 E0 7D A6 ED F6
 8A C0 11 3E C2 76 9A 36 64 E0 80 69 81 85 02 DE
 AB 79 82 C2 01 7A 0A 88 C9 E2 3E 25 5B 56 70 0B
 9C 57 FF E2 1B 47 56 27 0C AA 0D 11 80 20 7E 01
 BA 18 12 40 1D 86 AC 74 C6 85 2C ED 50 6A C6 EF
 34 B1 76 80 A9 8B 59 15 A8 C4 27 E6 A5 A5 F2 6D
 82 C6 73 30 7B 7E 88 E9 0B 05 13 E2 2F F8 E9 D9
 AC FE 3A 5F 8B D4 22 D8 EF 46 72 B3 45 3E 12 DC
 DE 66 52 49 05 26 15 2A F1 67 0E 8B 50 25 EF 13
 14 91 9D 75 A5 DA 8B 17 4D B2 F8 A8 EE 62 83 93
 1D 8F D9 4A C4 C9 E8 05 71 F1 7E C0 DC E1 68 DF
 71 9A 61 42 E7 79 1E C9 C7 42 DE 8D 6D 76 83 50
 24 E1 E2 47 CE C7 E4 69 FF 13 73 D8 24 05 35 E7
 72 F5 9C 4F B6 1C 01 4F 3D B0 85 51 21 2B 57 70
 F7 C7 D6 F4 23 FA A7 17 0B 88 EC EF BA 17 82 96
 75 84 1A 10 9F 97 42 DB 8D 10 39 84 03 3E 73 08
 1A 1E 49 4A 84 5E E6 91 19 AE B1 B7 E2 26 94 CD
 60 BF 50 02 E5 E1 9F F6 83 5C FC D3 13 37 4E 36
 B5 18 A4 27 AF 5F 6A A2 4B CB DB D6 BF 83 D3 D9
 EC B1 B3 6D F7 CB 0C D7 43 D5 1C 37 9F 2F A7 62
 60 DF BF EF 87 7F BA DC E0 41 E6 FD 00 CA E1 5A
 4C C7 E8 86 30 98 E4 F6 E4 31 CD 7F 2B 57 AE 52
 7E 63 91 F8 E8 55 2D A2 0D D2 29 ED D2 CC 92 A4
 49 E9 9F 5D AB 1B 72 14 39 53 1E 22 29 9B 83 7C
 45 A4 9F 1F 8C 4D C4 C5 2E B8 E0 DF 15 5E 43 D2
 65 A8 1F 02 5A 30 53 06 8C 12 65 19 39 AA 64 11
 B0 4B 85 A7 00 4E D0 61 25 ED 23 B2 E4 F5 71 0E
 D2 A9 2F B7 7C 00 6B CE 14 16 66 D1 6B 76 8E 11
 12 47 66 ED D2 FD D7 B0 DF ED D1 63 E5 EB 90 91
 3C 94 C7 14 7A EA 88 B9 DA 94 5F 08 07 D8 C6 96
 D9 7B EA 21 42 3F 36 60 5D DF 0F AE 6C 06 32 5F
 A4 41 17 63 64 07 53 31 E7 1A F1 62 E7 31 A3 AF
 23 BF E0 C4 BC BC E5 18 CA 87 34 22 A5 97 9B BF
 D5 49 98 A6 C2 F9 19 FB 24 16 38 FB D7 63 3C 06
 A1 2E 96 5E D8 30 6F 9B FE 34 B8 18 EB 44 16 7F
 F7 A1 C5 93 83 CD 39 6D 8A 36 10 E2 5D 9E DE 42
 52 5D F4 8D 86 95 9E 59 7B 56 30 94 C7 69 62 4A
 0C 9A 81 3E 53 1A D6 A8 D4 8A 35 7E 23 61 1A F1
 D5 1C 85 CE A3 A9 6D 23 4B 7A 17 E5 50 9F 9E B6
 F1 C0 91 87 EA 62 76 DB 6E 34 0F 4F C7 8B 4A 74
 04 2E 7C 54 D4 33 C1 C1 4C C0 25 1A 71 07 02 FE
 75 80 97 24 7C 30 47 01 F9 1F 95 D6 BD 29 EC A2
 E2 CB 30 62 3B FA BD F3 86 70 6A F8 D7 B4 83 A2
 2F E0 CD C0 11 B3 5F CB 22 9B 32 58 0E C6 48 77
 20 2D B1 67 88 88 4B 99 81 34 20 83 5F 86 FE 0B
 0F DD C9 91 30 DC CD 0E 2A 47 9C AF 6F 5B A1 BA
 2F FD 73 B0 99 F9 DE 09 D2 EA 86 A0 6A CE FA 64
 16 7C 8F 34 2D 22 57 EA 40 34 B4 18 6D 94 AB E8
 C7 68 1A 9B B4 0C B4 55 9E B5 B9 AE A1 56 87 1E
 BF BB 21 02 AB FD 91 FD FA 15 EC D1 5F AD 61 71
 87 F9 AD 98 DB B8 11 B6 B3 DE B2 59 B3 28 93 0E
 03 A5 9E 3A 41 03 1A 7F AD FD 9D 34 7B 1D A5 5C
 76 C7 D4 E4 06 7C 37 A7 41 43 BA EE 66 8B 4D 5A
 8A B3 AB 9C 96 3A 5F 41 03 88 70 2D B0 DC 93 DB
 64 5C 48 1D 3B 0D 99 D0 0D 87 79 64 03 B1 FC 97
 38 FB 46 2F AB 5C 99 F3 39 7F 9A 60 64 F9 89 A8
 A9 0E 4B 17 7A 79 84 61 B7 A6 05 A1 56 C1 33 51
 F7 39 F0 AA 48 58 8A D0 C6 46 EA C6 00 A0 84 73
 49 C5 9B 03 24 A0 A2 18 5D FB 1E 55 85 CB C0 24
 67 86 95 04 C2 A6 C1 2F E0 A5 7C F2 55 B4 E7 3A
 CD 1D BE 25 3B BF 1A A8 A5 52 C7 CE A0 42 6F ED
 8C 43 28 89 DA 5D 96 2D 22 E0 11 A9 8A E7 90 A4
 CE 34 0A F1 95 5F 0D 75 58 DC 90 B8 F3 1E C6 2A
 B4 8A A8 A2 B2 F7 C7 F7 EE F2 AC C0 DE A7 CC BE
 D1 63 96 26 49 A4 2A 3F 3C 29 C0 98 77 41 82 22
 20 CB 02 F9 25 0D 65 6B A4 FA 51 2F 96 29 20 77
 EE 08 32 C2 FE 9B 86 29 EA C4 C3 2B 27 30 64 92
 96 60 C6 26 7A 6C 3D 2D 5F 84 40 02 69 4E 27 BF
 24 15 90 77 40 C4 FE 4F 38 34 F0 86 36 D1 DF 02
 80 73 43 43 A3 2E 6E 27 E9 3A 13 39 52 A6 B7 D1
 06 E9 CC 07 9E EB 19 FA 8B EB D2 5E 9C 0D E9 03
 5C DB 1D 56 3A 8F 9C 46 ED E5 DF FD 22 13 A8 52
 B8 FD 08 E7 39 67 6C FA 52 54 2E 52 DA A2 2A 25
 8D 6D ED 77 CD A1 B5 1E 0B 82 65 71 90 D9 68 C7
 DF ED C0 54 1B 60 39 13 B7 C6 C9 D7 B4 38 4E F3
 49 EF 9F FA 61 67 32 DD 5F 98 49 3C D9 28 E7 59
 C9 45 E3 62 65 6A 81 11 24 93 A0 5A 8F 75 BD F5
 E9 A4 EB 3E C6 C0 97 80 A8 44 C0 11 A1 68 5F 7B
 9A 0E 5C AD 71 2C C3 C0 38 A8 79 11 70 E3 80 16
 BD 38 6E 97 20 21 9A 15 76 CF 2B EA 82 A2 FB 78
 C3 87 3D AD 46 2C 5A 0A 2D C9 CD AD FB 2A BF 0E
 5E C3 97 FC B7 9F E8 08 C1 81 3D E4 52 9C B1 2F
 38 B4 92 97 21 41 A3 8D 8D 87 75 B2 D8 A4 B7 B6
 82 BE A3 54 3C 74 52 2B CD 48 54 9F E3 FD 89 73
 2B 5C 9B CC 3A A9 4A 2F 0F 12 22 A9 9E 29 B9 20
 0C 3F 58 93 72 CD 7D D9 45 15 5D EE 80 DE 31 F3
 43 3B 27 A8 51 F3 C0 02 0C 79 BB BC 93 DB D7 90
 D3 36 AC F9 AC 1D 6A 76 D7 4F D7 CD 1B 77 7C D1
 6D 23 3C 1C 73 78 A7 ED F3 C4 2F C9 46 81 F9 02
 AB 06 69 38 1C 5E EE B2 1E 9F 96 2E 24 6D 1B 05
 C7 6A 90 7F 3B F0 8A DD BB 47 36 63 E3 AE 7D BC
 3E 0F AE 64 91 AC 64 A6 50 E3 3F 85 4C 1B 9C 76
 DB 1D 62 E3 D7 D9 93 8F C3 41 B4 F3 E7 0D 63 1F
 F2 31 36 0C 79 F9 48 E7 B3 83 0D D2 76 CC 9F 5B
 86 7F E0 E8 E5 21 6B 95 2B D5 18 A9 DE CF 7B 10
 51 A6 F9 79 39 E6 A0 70 C7 DA A0 38 8F F3 9E 47
 82 D1 9D 40 AB 80 1A FE 2C 9B 55 73 29 03 26 4F
 CE CC A8 BF 1B 29 7C 43 54 48 15 19 2E C4 D2 44
 D2 DB DD E0 3D 45 26 1B 3C 05 A6 06 61 9C 50 0C
 06 2E B9 A7 6F B9 C0 33 35 37 C0 16 8B 86 67 B8
 C2 57 35 8F 04 88 B4 51 7E 3B AA 5F 32 1D 2A BD
 B7 BF AB 28 0A 9C 24 3C C1 BB 5B 95 F8 E5 E2 BC
 91 B7 42 BF 5B 81 17 AA 95 DC CA A0 40 68 22 DB
 8A D8 D2 ED A1 DA 42 43 CC 10 04 25 CA 7C 3C 0F
 E1 67 AF 6E 54 22 B0 6E 3C FC F5 EB 23 06 FB C8
 B6 05 1D 2D 93 5D 68 CE DC 3C ED 1E E3 0E 7F 5E
 20 63 C3 50 00 FA B1 B2 05 6A 68 29 8A 1E 50 AD
 09 FA 89 09 16 73 21 0F A4 F5 1B CD 53 7B 98 E1
 9C DA F4 47 20 CB 2F 01 EB 6F 77 6E EC 96 CA AA
 FD 2E 3E FE 66 A7 A6 66 32 73 DC 57 86 B9 2C 8E
 70 41 58 2C E2 01 A5 A6 E0 BE 46 7A 85 35 24 2C
 92 A1 7E 68 DC 01 E0 24 BA 70 F9 67 EB BA 24 F1
 87 BC 62 9B EE 56 58 8E E2 24 32 3A 80 1C 0B 74
 B9 4D D8 9E 36 E1 51 A0 43 45 74 61 B6 33 C9 5E
 7D C6 F1 D5 78 33 F4 11 8F 5E D7 30 DA 9B 6A CE
 1A 0C 35 A1 4B 4C 0B 09 B8 B9 60 DE 79 C1 D0 8F
 4A 1A 65 99 72 D5 CC 54 30 6A BF E9 8D 43 46 D0
 58 B3 94 54 00 45 68 7C 96 E5 91 2E 38 D5 30 E0
 5E 84 4C C3 3E CD 7D A0 A4 A7 95 8F 92 7B BA 01
 D8 9C 4B B4 AE 3B 2B 13 60 8B D3 FF 32 70 0D EF
 DD EE 77 4F 79 95 CD F2 06 48 60 B7 E8 DA 14 4A
 08 95 D0 BD 96 3C 11 7B 6D 3F D2 3C 90 FF F8 39
 34 C4 2C C5 62 1A 57 E5 A8 BD 33 0E ED 57 6B 72
 37 93 92 00 35 55 4A 61 5C BF 2B 65 68 10 AC 17
 E1 B9 2E 5E F1 A6 9E 36 07 4F 04 48 DB 00 2C 2B
 F7 69 C9 9B 6B E6 AA 09 D5 A9 F9 90 00 C5 85 0D
 87 23 79 C5 BF E6 3B 89 B3 A6 C4 A8 77 E5 71 F0
 BF 96 B3 0B BD 7F F1 E6 E1 CA 2F 7D E7 C8 85 57
 8C EA AE 13 13 46 4C 6E D9 A7 39 E4 8C 82 E5 90
 D5 ED 8C 36 BA AF EA 1E 33 3F 33 EF D0 84 C2 82
 D9 D8 C1 28 3B 93 F3 02 0E E4 4A 0C 62 0D F4 3F
 25 12 12 2F 26 8C 98 FB CB 6C 80 DD 96 A8 0F 9A
 45 F4 8C 26 60 5B 94 12 D9 E0 B2 1F 0F CA 40 F5
 5D 24 F2 53 48 B9 23 3F A4 BE 46 0F DE C5 2D E0
 96 37 CB C0 88 FA FD B2 88 DB EE 15 65 05 9F AD
 04 B8 37 65 91 61 70 19 0B 94 EB A9 36 4B 7E 7D
 29 B2 DD 93 92 27 AA A3 00 8A D9 92 1D 7D A7 72
 1C 2B 29 3A C3 47 7E 89 D7 6E DB 7A D6 69 1F A6
 EE 12 EF A7 4C B2 4F DE 44 FE A7 01 C1 7D A3 4C
 51 42 79 6D D2 36 75 06 B7 91 D6 4F 9A E6 8A F3
 17 87 16 57 B5 28 6E E0 5C 7E 12 EC 25 A6 C4 29
 60 BD 6C F2 48 64 7E 8D 72 A8 23 C4 6E 49 07 D1
 A9 7F FF BF 70 50 79 8E AE 28 3A 88 48 FB B2 58
 01 F3 D0 8E 64 14 DA 40 88 BD CF 8A 0A E6 EA 92
 4A 09 0E A3 E3 1C B2 F2 05 7B 9A 45 09 B7 87 CE
 F6 82 DE 6B 72 FC EE BB 5F EB 9C 24 C5 A1 51 62
 A7 DE 02 DB 25 0D 5D 33 0C 1F 74 74 BB 4A 43 6B
 62 62 1E 92 AA EC BD C7 E6 29 C3 49 91 FF 2C ED
 12 C8 61 FB 10 56 7C 25 FF 9B 5A 73 A4 A9 80 87
 C2 B7 A4 B2 F3 AA 4E 49 A6 66 B8 FE 96 8C 85 08
 23 2F A9 DF FB 61 66 17 3E 0B F7 85 05 ED 97 FF
 3B BA 90 F2 92 BC 7A 0D A4 34 4C F1 F0 B4 B7 08
 75 64 F3 3D 92 E0 C3 BD 88 40 28 EB F0 FF AC 44
 56 AF A0 DB 18 8E A4 EF 91 8C 15 46 62 C8 69 2E
 DA 45 53 16 92 E3 3D 9D 02 01 64 86 03 1E CA 1E
 74 0D CF EA 61 D6 FA E1 2F 21 20 88 0A A2 BC 88
 D8 0B F4 E7 51 14 D1 39 AD 29 A2 C3 B6 1D 37 EE
 DC D7 30 3B 91 44 85 8C C9 80 8D D7 65 2A 56 21
 2E 4D 42 07 2C FA 42 80 B7 5B E5 21 2E 3E 7F 1F
 2F 46 4F 04 16 42 BB 5F 46 69 56 06 C0 5A 0E 74
 DA D3 AB 20 EF AF 6F E2 E2 DE BB A9 CD EA 6B ED
 9A F0 12 55 CB E0 3B 52 68 C1 CB F1 C4 BF 35 21
 07 30 CF 7C E5 D6 93 36 E5 59 8D BA B8 17 DF FB
 C4 A0 64 7E 0F D1 C5 B8 58 F5 D8 31 9D E5 07 03
 7B 96 0A 6E 7A 64 E1 E4 23 15 26 E7 E5 86 40 49
 DA 21 49 A6 FA 00 DA CB 97 7E 5C E2 86 C5 A4 C5
 3E 7D 1B 0C 06 5D A5 9C AA FA E7 1D 2D 21 B1 19
 CC 0B 5C 42 26 8F 27 75 A3 BF E5 A1 52 AC 82 CA
 8F CB 2E 02 27 CB 26 F9 A7 2B C3 AD 10 CF 1E F1
 CD 7D D1 52 75 50 A7 A1 66 0F 5C 76 33 0B 8A 45
 E4 29 2A 09 8F 94 BE F2 1B E7 9D 07 7E 3D D1 23
 6B 01 1F 3C CE 93 AD F2 F2 D2 DD 49 84 E0 00 D0
 20 DA 5A 50 AD 3C 2F 1D D3 FB 6A DF 22 3E 77 15
 EA 91 0D 16 E4 C3 6E 17 D5 D0 EF CC 19 68 F1 63
 E3 C3 40 CE F6 EB 18 A9 FB 2D 2D 99 91 FB 4E 66
 DC 40 50 9E D8 FB 52 AD B5 AA 19 98 6C A7 DE 49
 22 8A C0 F9 F3 78 49 47 CA 0C E6 0E 53 41 86 3F
 B6 B4 DF B0 83 09 D6 05 EC 22 CA 59 C2 06 D6 70
 D5 41 15 A5 FB 16 B7 E5 03 A1 37 DB 99 4B 08 A3
 FF 83 1B 9A 3E 37 B6 7E 9A 22 7B 11 C4 7E FD 4D
 67 C3 AB 8C 0E 69 6F 06 27 73 BE D9 D2 A6 7B 39
 3B 1F 0A 10 A3 F9 01 86 C8 69 CF EF AB F4 70 3A
 7F 57 03 62 3B F4 E6 9D F7 13 55 62 BF D6 CE 04
 EA 0F E3 42 28 1F C2 C0 41 61 EA 2D F0 09 03 E8
 11 6C DA 82 6D 93 63 E3 FC B5 AE A8 ED 87 DE 4F
 15 DA D1 44 D0 B7 8D 16 E2 0E 87 42 22 CA C7 AF
 39 38 51 3B 6D 36 68 9C 5A 60 92 63 B9 D1 8C 8F
 39 08 3F 29 75 2C A0 23
* End 267357939 2814666716