LTspice 24.0.12 for Windows
Circuit: * C:\Users\vince\OneDrive\Documents\LTspice\tutorial\Draft1.asc
Start Time: Sun Jan 12 13:20:34 2025
Warning: Multiple definitions of model "2scr375p" Type: BJT
Warning: Multiple definitions of model "bc857b" Type: BJT
Warning: Multiple definitions of model "bc847c" Type: BJT
Warning: Multiple definitions of model "bc847b" Type: BJT
solver = Normal
Maximum thread count: 16
tnom = 27
temp = 27
method = modified trap
WARNING: Node NC_01 is floating.
WARNING: Node NC_02 is floating.
WARNING: Node NC_03 is floating.
WARNING: Node NC_04 is floating.

WARNING: Less than two connections to node nc_01.  This node is used by c1.
WARNING: Less than two connections to node nc_02.  This node is used by c1.
WARNING: Less than two connections to node nc_03.  This node is used by c2.
WARNING: Less than two connections to node nc_04.  This node is used by c2.
WARNING: Less than two connections to node n002.  This node is used by v1.
Direct Newton iteration for .op point succeeded.
Total elapsed time: 0.081 seconds.

