LTspice 24.0.12 for Windows
Circuit: LPFILTER.CIR - SIMPLE RC LOW-PASS FILTER
Start Time: Fri Dec 27 16:14:31 2024
solver = Normal
Maximum thread count: 16
tnom = 27
temp = 27
method = modified trap
.OP point found by inspection.
Total elapsed time: 0.056 seconds.

