LTspice 24.0.12 for Windows
Circuit: * C:\Users\vince\OneDrive\Documents\LTspice\tutorial\opampAmplif.asc
Start Time: Fri Dec 27 22:28:26 2024
solver = Normal
Maximum thread count: 16
tnom = 27
temp = 27
method = modified trap
Direct Newton iteration failed to find .op point.  (Use ".option noopiter" to skip.)
Starting Gmin stepping
Gmin = 10
Gmin = 1.07374
vernier = 0.5
vernier = 0.25
vernier = 0.125
vernier = 0.0625
Gmin = 1.08884
vernier = 0.03125
vernier = 0.015625
Gmin = 1.03523
vernier = 0.0078125
vernier = 0.0104167
vernier = 0.00520833
Gmin = 1.02119
vernier = 0.00260417
Gmin = 1.01391
vernier = 0.00347222
vernier = 0.00173611
vernier = 0.00231481
vernier = 0.00115741
Gmin = 1.01142
vernier = 0.00154321
vernier = 0.000771604
Gmin = 1.00928
vernier = 0.00102881
vernier = 0.000514403
Gmin = 1.00759
vernier = 0.00068587
vernier = 0.000514403
Gmin = 1.00638
vernier = 0.00068587
vernier = 0.000514402
Gmin = 0
Gmin = 0
Gmin stepping failed

Starting source stepping with srcstepmethod=0
Source Step = 3.0303%
Source Step = 33.3333%
Source Step = 63.6364%
Source Step = 93.9394%
Source stepping succeeded in finding the operating point.

Total elapsed time: 0.249 seconds.

