LTspice 24.0.12 for Windows
Circuit: * C:\Users\vince\OneDrive\Documents\LTspice\tutorial\RCfilter.asc
Start Time: Fri Dec 27 17:29:43 2024
solver = Normal
Maximum thread count: 16
tnom = 27
temp = 27
method = modified trap
.OP point found by inspection.
Total elapsed time: 0.040 seconds.

